31

C          1.78787       -1.12472        2.45721
N          2.44726       -0.41068        1.36966
C          3.53753       -1.06085        0.64674
C          3.09333       -1.72966       -0.66338
O          2.35798       -2.91536       -0.39859
C          2.27439       -0.80917       -1.61455
O          0.86631       -0.94030       -1.34408
C          2.75973        0.64190       -1.63561
C          2.53227        1.46699       -0.33008
N          1.58955        2.55976       -0.53517
C          0.63805        2.36018        0.33621
N         -0.43505        3.16806        0.51891
C         -0.69011        4.23444       -0.43432
N          0.73673        1.20694        1.16646
C          1.88722        0.68344        0.82102
H          1.22539       -1.98703        2.08430
H          1.10890       -0.43757        2.96137
H          2.54364       -1.48141        3.16295
H          4.32220       -0.32326        0.43721
H          3.96952       -1.82431        1.29702
H          4.01056       -2.01947       -1.19477
H          1.42545       -2.68866       -0.55663
H          2.37908       -1.22394       -2.62148
H          0.59186       -0.33248       -0.63857
H          2.24281        1.17666       -2.43571
H          3.82572        0.62932       -1.89137
H          3.49891        1.86289        0.01389
H         -1.25522        2.69718        0.89693
H         -0.88674        3.85196       -1.44634
H         -1.55170        4.81081       -0.09063
H          0.18085        4.89108       -0.49365
